Circuit: * D:\My ECU Stuff\Analogue\analog_in_test.asc


Date: Thu Apr 29 10:02:41 2021
Total elapsed time: 0.100 seconds.

tnom = 27
temp = 27
method = trap
totiter = 0
traniter = 0
tranpoints = 0
accept = 0
rejected = 0
matrix size = 7
fillins = 2
solver = Normal

