Circuit: * D:\My ECU Stuff\Analogue\SPC572L_ADC_1ms.asc

Direct Newton iteration for .op point succeeded.

Date: Thu Apr 29 15:54:36 2021
Total elapsed time: 0.153 seconds.

tnom = 27
temp = 27
method = trap
totiter = 5
traniter = 0
tranpoints = 0
accept = 0
rejected = 0
matrix size = 12
fillins = 0
solver = Normal
Matrix Compiler1:      27 opcodes
Matrix Compiler2: 818 bytes object code size
