Circuit: * E:\My ECU Stuff\Analogue\SPC572L_ADC_ip_overvolts.asc

Direct Newton iteration for .op point succeeded.

Date: Thu Apr 29 20:50:09 2021
Total elapsed time: 0.341 seconds.

tnom = 27
temp = 27
method = modified trap
totiter = 2100
traniter = 2088
tranpoints = 1045
accept = 1045
rejected = 0
matrix size = 11
fillins = 0
solver = Normal
Matrix Compiler1: 414 bytes object code size  0.1/0.1/[0.1]
Matrix Compiler2: 779 bytes object code size  0.1/0.1/[0.1]

