Circuit: * D:\My ECU Stuff\Analogue\SPC572L_ADC_ESD.asc

Limiting rise time of source v4 to 1.9984e-016
Limiting fall time of source v4 to 1.9984e-016
Limiting rise time of source v3 to 0.02
Limiting fall time of source v3 to 0.02
Direct Newton iteration for .op point succeeded.

Date: Fri Apr 30 12:50:10 2021
Total elapsed time: 0.235 seconds.

tnom = 27
temp = 27
method = modified trap
totiter = 2341
traniter = 2336
tranpoints = 1145
accept = 1124
rejected = 21
matrix size = 18
fillins = 0
solver = Normal
Matrix Compiler1: 620 bytes object code size  0.4/0.2/[0.1]
Matrix Compiler2: 1.13 KB object code size  0.1/0.2/[0.1]

