Circuit: * E:\My ECU Stuff\Analogue\SPC572L_ADC_Vbat_1ms.asc

Direct Newton iteration for .op point succeeded.

Date: Thu Apr 29 19:49:14 2021
Total elapsed time: 0.093 seconds.

tnom = 27
temp = 27
method = trap
totiter = 5
traniter = 0
tranpoints = 0
accept = 0
rejected = 0
matrix size = 11
fillins = 0
solver = Normal
Matrix Compiler1:      24 opcodes
Matrix Compiler2: 745 bytes object code size
