Circuit: * D:\My ECU Stuff\Analogue\SPC572L_ADC_PIN.asc

Direct Newton iteration for .op point succeeded.

Date: Thu Apr 29 15:26:59 2021
Total elapsed time: 0.417 seconds.

tnom = 27
temp = 27
method = modified trap
totiter = 2087
traniter = 2082
tranpoints = 1042
accept = 1042
rejected = 0
matrix size = 12
fillins = 0
solver = Normal
Matrix Compiler1: 446 bytes object code size  0.7/0.3/[0.1]
Matrix Compiler2: 818 bytes object code size  0.3/0.4/[0.2]

